functions/OneTimeScripts/validationAgainstOpenDSS_MATLAB/ieee123_1ph_created/results/pv010_batt000/powers9.csv
Element, Terminal, P(kW), Q(kvar),  P_Normal, Q_Normal, P_Emergency, Q_Emergency
"Line.L115"             ,   1,       809.4,       278.3,         0.0,         0.0,         0.0,         0.0
"Line.L115"             ,   2,      -806.5,      -272.3
"Line.L1"               ,   1,         5.0,         2.5,         0.0,         0.0,         0.0,         0.0
"Line.L1"               ,   2,        -5.0,        -2.5
"Line.L2"               ,   1,        25.0,        12.5,         0.0,         0.0,         0.0,         0.0
"Line.L2"               ,   2,       -25.0,       -12.5
"Line.L3"               ,   1,       766.5,       252.3,         0.0,         0.0,         0.0,         0.0
"Line.L3"               ,   2,      -764.5,      -248.3
"Line.L4"               ,   1,        10.0,         5.0,         0.0,         0.0,         0.0,         0.0
"Line.L4"               ,   2,       -10.0,        -5.0
"Line.L5"               ,   1,        15.0,         7.5,         0.0,         0.0,         0.0,         0.0
"Line.L5"               ,   2,       -15.0,        -7.5
"Line.L6"               ,   1,        10.0,         5.0,         0.0,         0.0,         0.0,         0.0
"Line.L6"               ,   2,       -10.0,        -5.0
"Line.L7"               ,   1,       759.5,       245.8,         0.0,         0.0,         0.0,         0.0
"Line.L7"               ,   2,      -758.2,      -243.1
"Line.L8"               ,   1,         5.0,         2.5,         0.0,         0.0,         0.0,         0.0
"Line.L8"               ,   2,        -5.0,        -2.5
"Line.L9"               ,   1,        21.0,        12.5,         0.0,         0.0,         0.0,         0.0
"Line.L9"               ,   2,       -21.0,       -12.5
"Line.L10"              ,   1,       732.2,       228.1,         0.0,         0.0,         0.0,         0.0
"Line.L10"              ,   2,      -730.4,      -224.5
"Line.L11"              ,   1,        15.0,         7.5,         0.0,         0.0,         0.0,         0.0
"Line.L11"              ,   2,       -15.0,        -7.5
"Line.L12"              ,   1,        25.0,        12.5,         0.0,         0.0,         0.0,         0.0
"Line.L12"              ,   2,       -25.0,       -12.5
"Line.L13"              ,   1,       255.0,       165.0,         0.0,         0.0,         0.0,         0.0
"Line.L13"              ,   2,      -254.2,      -163.4
"Line.L14"              ,   1,        10.0,         5.0,         0.0,         0.0,         0.0,         0.0
"Line.L14"              ,   2,       -10.0,        -5.0
"Line.L15"              ,   1,         5.0,         2.5,         0.0,         0.0,         0.0,         0.0
"Line.L15"              ,   2,        -5.0,        -2.5
"Line.L16"              ,   1,        10.0,         5.0,         0.0,         0.0,         0.0,         0.0
"Line.L16"              ,   2,       -10.0,        -5.0
"Line.L17"              ,   1,         5.0,         2.5,         0.0,         0.0,         0.0,         0.0
"Line.L17"              ,   2,        -5.0,        -2.5
"Line.L18"              ,   1,        20.0,        10.0,         0.0,         0.0,         0.0,         0.0
"Line.L18"              ,   2,       -20.0,       -10.0
"Line.L19"              ,   1,        66.1,        35.1,         0.0,         0.0,         0.0,         0.0
"Line.L19"              ,   2,       -66.0,       -35.0
"Line.L20"              ,   1,        10.0,         5.0,         0.0,         0.0,         0.0,         0.0
"Line.L20"              ,   2,       -10.0,        -5.0
"Line.L21"              ,   1,        10.0,         5.0,         0.0,         0.0,         0.0,         0.0
"Line.L21"              ,   2,       -10.0,        -5.0
"Line.L22"              ,   1,        56.0,        30.0,         0.0,         0.0,         0.0,         0.0
"Line.L22"              ,   2,       -56.0,       -30.0
"Line.L23"              ,   1,        10.0,         5.0,         0.0,         0.0,         0.0,         0.0
"Line.L23"              ,   2,       -10.0,        -5.0
"Line.L24"              ,   1,        46.0,        25.0,         0.0,         0.0,         0.0,         0.0
"Line.L24"              ,   2,       -46.0,       -25.0
"Line.L25"              ,   1,        20.0,        10.0,         0.0,         0.0,         0.0,         0.0
"Line.L25"              ,   2,       -20.0,       -10.0
"Line.L26"              ,   1,        26.0,        15.0,         0.0,         0.0,         0.0,         0.0
"Line.L26"              ,   2,       -26.0,       -15.0
"Line.L27"              ,   1,        10.0,         5.0,         0.0,         0.0,         0.0,         0.0
"Line.L27"              ,   2,       -10.0,        -5.0
"Line.L28"              ,   1,        10.0,         5.0,         0.0,         0.0,         0.0,         0.0
"Line.L28"              ,   2,       -10.0,        -5.0
"Line.L29"              ,   1,        10.0,         5.0,         0.0,         0.0,         0.0,         0.0
"Line.L29"              ,   2,       -10.0,        -5.0
"Line.L30"              ,   1,        20.0,        10.0,         0.0,         0.0,         0.0,         0.0
"Line.L30"              ,   2,       -20.0,       -10.0
"Line.L31"              ,   1,        10.0,         5.0,         0.0,         0.0,         0.0,         0.0
"Line.L31"              ,   2,       -10.0,        -5.0
"Line.L32"              ,   1,         0.0,        -0.0,         0.0,         0.0,         0.0,         0.0
"Line.L32"              ,   2,        -0.0,        -0.0
"Line.L33"              ,   1,         5.0,         2.5,         0.0,         0.0,         0.0,         0.0
"Line.L33"              ,   2,        -5.0,        -2.5
"Line.L34"              ,   1,        15.0,         7.5,         0.0,         0.0,         0.0,         0.0
"Line.L34"              ,   2,       -15.0,        -7.5
"Line.L35"              ,   1,        20.0,        10.0,         0.0,         0.0,         0.0,         0.0
"Line.L35"              ,   2,       -20.0,       -10.0
"Line.L36"              ,   1,       138.0,       103.0,         0.0,         0.0,         0.0,         0.0
"Line.L36"              ,   2,      -137.9,      -102.9
"Line.L37"              ,   1,        10.0,         5.0,         0.0,         0.0,         0.0,         0.0
"Line.L37"              ,   2,       -10.0,        -5.0
"Line.L38"              ,   1,        10.0,         5.0,         0.0,         0.0,         0.0,         0.0
"Line.L38"              ,   2,       -10.0,        -5.0
"Line.L39"              ,   1,         5.0,         2.5,         0.0,         0.0,         0.0,         0.0
"Line.L39"              ,   2,        -5.0,        -2.5
"Line.L40"              ,   1,         5.0,         2.5,         0.0,         0.0,         0.0,         0.0
"Line.L40"              ,   2,        -5.0,        -2.5
"Line.L41"              ,   1,       132.9,       100.4,         0.0,         0.0,         0.0,         0.0
"Line.L41"              ,   2,      -132.9,      -100.2
"Line.L42"              ,   1,        10.0,         5.0,         0.0,         0.0,         0.0,         0.0
"Line.L42"              ,   2,       -10.0,        -5.0
"Line.L43"              ,   1,       117.9,        92.7,         0.0,         0.0,         0.0,         0.0
"Line.L43"              ,   2,      -117.8,       -92.6
"Line.L44"              ,   1,        10.0,         5.0,         0.0,         0.0,         0.0,         0.0
"Line.L44"              ,   2,       -10.0,        -5.0
"Line.L45"              ,   1,       107.8,        87.6,         0.0,         0.0,         0.0,         0.0
"Line.L45"              ,   2,      -107.8,       -87.5
"Line.L46"              ,   1,         5.0,         2.5,         0.0,         0.0,         0.0,         0.0
"Line.L46"              ,   2,        -5.0,        -2.5
"Line.L47"              ,   1,        31.5,        37.5,         0.0,         0.0,         0.0,         0.0
"Line.L47"              ,   2,       -31.5,       -37.5
"Line.L48"              ,   1,        50.0,        31.3,         0.0,         0.0,         0.0,         0.0
"Line.L48"              ,   2,       -50.0,       -31.2
"Line.L49"              ,   1,        15.0,         7.5,         0.0,         0.0,         0.0,         0.0
"Line.L49"              ,   2,       -15.0,        -7.5
"Line.L50"              ,   1,         5.0,         2.5,         0.0,         0.0,         0.0,         0.0
"Line.L50"              ,   2,        -5.0,        -2.5
"Line.L51"              ,   1,         0.0,        -0.0,         0.0,         0.0,         0.0,         0.0
"Line.L51"              ,   2,         0.0,        -0.0
"Line.L52"              ,   1,       439.5,        40.2,         0.0,         0.0,         0.0,         0.0
"Line.L52"              ,   2,      -439.1,       -39.4
"Line.L53"              ,   1,       429.1,        34.4,         0.0,         0.0,         0.0,         0.0
"Line.L53"              ,   2,      -428.9,       -33.9
"Line.L54"              ,   1,        10.0,         5.0,         0.0,         0.0,         0.0,         0.0
"Line.L54"              ,   2,       -10.0,        -5.0
"Line.L55"              ,   1,       418.9,        28.9,         0.0,         0.0,         0.0,         0.0
"Line.L55"              ,   2,      -418.2,       -27.6
"Line.L56"              ,   1,         5.0,         2.5,         0.0,         0.0,         0.0,         0.0
"Line.L56"              ,   2,        -5.0,        -2.5
"Line.L57"              ,   1,         8.0,         5.0,         0.0,         0.0,         0.0,         0.0
"Line.L57"              ,   2,        -8.0,        -5.0
"Line.L58"              ,   1,       410.2,        22.6,         0.0,         0.0,         0.0,         0.0
"Line.L58"              ,   2,      -408.9,       -19.9
"Line.L59"              ,   1,         5.0,         2.5,         0.0,         0.0,         0.0,         0.0
"Line.L59"              ,   2,        -5.0,        -2.5
"Line.L60"              ,   1,         0.0,        -0.0,         0.0,         0.0,         0.0,         0.0
"Line.L60"              ,   2,        -0.0,         0.0
"Line.L61"              ,   1,        78.7,        52.5,         0.0,         0.0,         0.0,         0.0
"Line.L61"              ,   2,       -78.6,       -52.5
"Line.L62"              ,   1,        68.6,        47.5,         0.0,         0.0,         0.0,         0.0
"Line.L62"              ,   2,       -68.6,       -47.5
"Line.L63"              ,   1,        58.6,        42.5,         0.0,         0.0,         0.0,         0.0
"Line.L63"              ,   2,       -58.5,       -42.5
"Line.L64"              ,   1,        39.8,        33.7,         0.0,         0.0,         0.0,         0.0
"Line.L64"              ,   2,       -39.8,       -33.7
"Line.L65"              ,   1,        18.8,         8.7,         0.0,         0.0,         0.0,         0.0
"Line.L65"              ,   2,       -18.7,        -8.8
"Line.L66"              ,   1,        30.0,        15.0,         0.0,         0.0,         0.0,         0.0
"Line.L66"              ,   2,       -30.0,       -15.0
"Line.L67"              ,   1,       188.6,      -106.1,         0.0,         0.0,         0.0,         0.0
"Line.L67"              ,   2,      -188.5,       106.4
"Line.L68"              ,   1,       106.2,        55.2,         0.0,         0.0,         0.0,         0.0
"Line.L68"              ,   2,      -106.1,       -55.1
"Line.L69"              ,   1,        25.0,        12.5,         0.0,         0.0,         0.0,         0.0
"Line.L69"              ,   2,       -25.0,       -12.5
"Line.L70"              ,   1,        15.0,         7.5,         0.0,         0.0,         0.0,         0.0
"Line.L70"              ,   2,       -15.0,        -7.5
"Line.L71"              ,   1,        10.0,         5.0,         0.0,         0.0,         0.0,         0.0
"Line.L71"              ,   2,       -10.0,        -5.0
"Line.L72"              ,   1,        30.0,        15.0,         0.0,         0.0,         0.0,         0.0
"Line.L72"              ,   2,       -30.0,       -15.0
"Line.L73"              ,   1,       158.4,      -121.5,         0.0,         0.0,         0.0,         0.0
"Line.L73"              ,   2,      -158.4,       121.6
"Line.L74"              ,   1,        20.0,        10.0,         0.0,         0.0,         0.0,         0.0
"Line.L74"              ,   2,       -20.0,       -10.0
"Line.L75"              ,   1,        10.0,         5.0,         0.0,         0.0,         0.0,         0.0
"Line.L75"              ,   2,       -10.0,        -5.0
"Line.L76"              ,   1,        60.5,      -153.6,         0.0,         0.0,         0.0,         0.0
"Line.L76"              ,   2,       -60.4,       153.9
"Line.L77"              ,   1,        61.1,       -13.0,         0.0,         0.0,         0.0,         0.0
"Line.L77"              ,   2,       -61.0,        13.1
"Line.L78"              ,   1,        50.4,      -158.9,         0.0,         0.0,         0.0,         0.0
"Line.L78"              ,   2,       -50.4,       158.9
"Line.L79"              ,   1,        10.0,         5.0,         0.0,         0.0,         0.0,         0.0
"Line.L79"              ,   2,       -10.0,        -5.0
"Line.L80"              ,   1,        40.4,      -163.9,         0.0,         0.0,         0.0,         0.0
"Line.L80"              ,   2,       -40.2,       164.2
"Line.L81"              ,   1,        30.2,      -169.2,         0.0,         0.0,         0.0,         0.0
"Line.L81"              ,   2,       -30.2,       169.3
"Line.L82"              ,   1,        15.2,      -176.8,         0.0,         0.0,         0.0,         0.0
"Line.L82"              ,   2,       -15.1,       177.0
"Line.L83"              ,   1,        15.0,         7.5,         0.0,         0.0,         0.0,         0.0
"Line.L83"              ,   2,       -15.0,        -7.5
"Line.L84"              ,   1,         5.1,      -182.0,         0.0,         0.0,         0.0,         0.0
"Line.L84"              ,   2,        -5.0,       182.2
"Line.L85"              ,   1,        10.0,         5.0,         0.0,         0.0,         0.0,         0.0
"Line.L85"              ,   2,       -10.0,        -5.0
"Line.L86"              ,   1,        56.0,       -15.6,         0.0,         0.0,         0.0,         0.0
"Line.L86"              ,   2,       -56.0,        15.6
"Line.L87"              ,   1,        10.0,       -10.2,         0.0,         0.0,         0.0,         0.0
"Line.L87"              ,   2,       -10.0,        10.2
"Line.L88"              ,   1,        40.0,       -10.4,         0.0,         0.0,         0.0,         0.0
"Line.L88"              ,   2,       -40.0,        10.4
"Line.L89"              ,   1,        10.0,       -10.2,         0.0,         0.0,         0.0,         0.0
"Line.L89"              ,   2,       -10.0,        10.2
"Line.L90"              ,   1,        30.0,        -0.2,         0.0,         0.0,         0.0,         0.0
"Line.L90"              ,   2,       -30.0,         0.2
"Line.L91"              ,   1,        10.0,       -10.2,         0.0,         0.0,         0.0,         0.0
"Line.L91"              ,   2,       -10.0,        10.2
"Line.L92"              ,   1,        20.0,        10.0,         0.0,         0.0,         0.0,         0.0
"Line.L92"              ,   2,       -20.0,       -10.0
"Line.L93"              ,   1,        10.0,         5.0,         0.0,         0.0,         0.0,         0.0
"Line.L93"              ,   2,       -10.0,        -5.0
"Line.L94"              ,   1,        10.0,         5.0,         0.0,         0.0,         0.0,         0.0
"Line.L94"              ,   2,       -10.0,        -5.0
"Line.L95"              ,   1,         5.0,         2.5,         0.0,         0.0,         0.0,         0.0
"Line.L95"              ,   2,        -5.0,        -2.5
"Line.L96"              ,   1,        26.0,        15.0,         0.0,         0.0,         0.0,         0.0
"Line.L96"              ,   2,       -26.0,       -15.0
"Line.L97"              ,   1,        16.0,        10.0,         0.0,         0.0,         0.0,         0.0
"Line.L97"              ,   2,       -16.0,       -10.0
"Line.L98"              ,   1,         6.0,         5.0,         0.0,         0.0,         0.0,         0.0
"Line.L98"              ,   2,        -6.0,        -5.0
"Line.L99"              ,   1,         0.0,        -0.0,         0.0,         0.0,         0.0,         0.0
"Line.L99"              ,   2,        -0.0,         0.0
"Line.L118"             ,   1,        80.1,        40.1,         0.0,         0.0,         0.0,         0.0
"Line.L118"             ,   2,       -80.1,       -40.1
"Line.L100"             ,   1,        25.0,        12.5,         0.0,         0.0,         0.0,         0.0
"Line.L100"             ,   2,       -25.0,       -12.5
"Line.L101"             ,   1,        55.1,        27.6,         0.0,         0.0,         0.0,         0.0
"Line.L101"             ,   2,       -55.1,       -27.6
"Line.L102"             ,   1,        20.0,        10.0,         0.0,         0.0,         0.0,         0.0
"Line.L102"             ,   2,       -20.0,       -10.0
"Line.L103"             ,   1,        10.0,         5.0,         0.0,         0.0,         0.0,         0.0
"Line.L103"             ,   2,       -10.0,        -5.0
"Line.L104"             ,   1,        20.0,        10.0,         0.0,         0.0,         0.0,         0.0
"Line.L104"             ,   2,       -20.0,       -10.0
"Line.L105"             ,   1,        35.1,        17.5,         0.0,         0.0,         0.0,         0.0
"Line.L105"             ,   2,       -35.1,       -17.5
"Line.L106"             ,   1,        10.0,         5.0,         0.0,         0.0,         0.0,         0.0
"Line.L106"             ,   2,       -10.0,        -5.0
"Line.L107"             ,   1,        35.1,        17.5,         0.0,         0.0,         0.0,         0.0
"Line.L107"             ,   2,       -35.0,       -17.5
"Line.L108"             ,   1,         0.0,        -0.0,         0.0,         0.0,         0.0,         0.0
"Line.L108"             ,   2,         0.0,         0.0
"Line.L109"             ,   1,        25.0,        12.5,         0.0,         0.0,         0.0,         0.0
"Line.L109"             ,   2,       -25.0,       -12.5
"Line.L110"             ,   1,         5.0,         2.5,         0.0,         0.0,         0.0,         0.0
"Line.L110"             ,   2,        -5.0,        -2.5
"Line.L111"             ,   1,        20.0,        10.0,         0.0,         0.0,         0.0,         0.0
"Line.L111"             ,   2,       -20.0,       -10.0
"Line.L112"             ,   1,        15.0,         7.5,         0.0,         0.0,         0.0,         0.0
"Line.L112"             ,   2,       -15.0,        -7.5
"Line.L113"             ,   1,         5.0,         2.5,         0.0,         0.0,         0.0,         0.0
"Line.L113"             ,   2,        -5.0,        -2.5
"Line.L114"             ,   1,       168.2,       118.3,         0.0,         0.0,         0.0,         0.0
"Line.L114"             ,   2,      -168.0,      -118.0
"Line.L116"             ,   1,       450.4,        46.9,         0.0,         0.0,         0.0,         0.0
"Line.L116"             ,   2,      -449.5,       -45.2
"Line.L117"             ,   1,       325.2,       -35.1,         0.0,         0.0,         0.0,         0.0
"Line.L117"             ,   2,      -324.8,        35.9
"Line.SW1"              ,   1,       809.4,       278.3,         0.0,         0.0,         0.0,         0.0
"Line.SW1"              ,   2,      -809.4,      -278.3
"Line.SW2"              ,   1,       450.4,        46.9,         0.0,         0.0,         0.0,         0.0
"Line.SW2"              ,   2,      -450.4,       -46.9
"Line.SW3"              ,   1,       168.2,       118.3,         0.0,         0.0,         0.0,         0.0
"Line.SW3"              ,   2,      -168.2,      -118.3
"Line.SW4"              ,   1,       325.2,       -35.1,         0.0,         0.0,         0.0,         0.0
"Line.SW4"              ,   2,      -325.2,        35.1
"Line.SW5"              ,   1,        80.1,        40.1,         0.0,         0.0,         0.0,         0.0
"Line.SW5"              ,   2,       -80.1,       -40.1
"Line.XFM1"             ,   1,        -0.0,         0.0,         0.0,         0.0,         0.0,         0.0
"Line.XFM1"             ,   2,         0.0,        -0.0
"Capacitor.C83"         ,   1,         0.0,      -184.7,         0.0,         0.0,         0.0,         0.0
"Capacitor.C83"         ,   2,         0.0,         0.0
"Capacitor.C88"         ,   1,         0.0,       -15.2,         0.0,         0.0,         0.0,         0.0
"Capacitor.C88"         ,   2,         0.0,         0.0
"Capacitor.C90"         ,   1,         0.0,       -15.2,         0.0,         0.0,         0.0,         0.0
"Capacitor.C90"         ,   2,         0.0,         0.0
"Capacitor.C92"         ,   1,         0.0,       -15.2,         0.0,         0.0,         0.0,         0.0
"Capacitor.C92"         ,   2,         0.0,         0.0
"Transformer.REG1A"     ,   1,       809.4,       278.3,         0.0,         0.0,         0.0,         0.0
"Transformer.REG1A"     ,   2,      -809.4,      -278.3
"Transformer.REG2A"     ,   1,        15.0,         7.5,         0.0,         0.0,         0.0,         0.0
"Transformer.REG2A"     ,   2,       -15.0,        -7.5
"Transformer.REG3A"     ,   1,        20.0,        10.0,         0.0,         0.0,         0.0,         0.0
"Transformer.REG3A"     ,   2,       -20.0,       -10.0
"Transformer.REG4A"     ,   1,       325.2,       -35.1,         0.0,         0.0,         0.0,         0.0
"Transformer.REG4A"     ,   2,      -325.2,        35.1
"Load.S1"               ,   1,        10.0,         5.0
"Load.S2"               ,   1,         5.0,         2.5
"Load.S4"               ,   1,        10.0,         5.0
"Load.S5"               ,   1,         5.0,         2.5
"Load.S6"               ,   1,        10.0,         5.0
"Load.S7"               ,   1,         5.0,         2.5
"Load.S9"               ,   1,        10.0,         5.0
"Load.S10"              ,   1,         5.0,         2.5
"Load.S11"              ,   1,        10.0,         5.0
"Load.S12"              ,   1,         5.0,         2.5
"Load.S16"              ,   1,        10.0,         5.0
"Load.S17"              ,   1,         5.0,         2.5
"Load.S19"              ,   1,        10.0,         5.0
"Load.S20"              ,   1,        10.0,         5.0
"Load.S22"              ,   1,        10.0,         5.0
"Load.S24"              ,   1,        10.0,         5.0
"Load.S28"              ,   1,        10.0,         5.0
"Load.S29"              ,   1,        10.0,         5.0
"Load.S30"              ,   1,        10.0,         5.0
"Load.S31"              ,   1,         5.0,         2.5
"Load.S32"              ,   1,         5.0,         2.5
"Load.S33"              ,   1,        10.0,         5.0
"Load.S34"              ,   1,        10.0,         5.0
"Load.S35"              ,   1,        10.0,         5.0
"Load.S37"              ,   1,        10.0,         5.0
"Load.S38"              ,   1,         5.0,         2.5
"Load.S39"              ,   1,         5.0,         2.5
"Load.S41"              ,   1,         5.0,         2.5
"Load.S42"              ,   1,         5.0,         2.5
"Load.S43"              ,   1,        10.0,         5.0
"Load.S45"              ,   1,         5.0,         2.5
"Load.S46"              ,   1,         5.0,         2.5
"Load.S47"              ,   1,        26.2,        18.7
"Load.S48"              ,   1,        52.5,        37.5
"Load.S49"              ,   1,        35.0,        23.7
"Load.S50"              ,   1,        10.0,         5.0
"Load.S51"              ,   1,         5.0,         2.5
"Load.S52"              ,   1,        10.0,         5.0
"Load.S53"              ,   1,        10.0,         5.0
"Load.S55"              ,   1,         5.0,         2.5
"Load.S56"              ,   1,         5.0,         2.5
"Load.S58"              ,   1,         5.0,         2.5
"Load.S59"              ,   1,         5.0,         2.5
"Load.S60"              ,   1,         5.0,         2.5
"Load.S62"              ,   1,        10.0,         5.0
"Load.S63"              ,   1,        10.0,         5.0
"Load.S64"              ,   1,        18.7,         8.8
"Load.S65"              ,   1,        35.0,        25.0
"Load.S66"              ,   1,        18.7,         8.8
"Load.S68"              ,   1,         5.0,         2.5
"Load.S69"              ,   1,        10.0,         5.0
"Load.S70"              ,   1,         5.0,         2.5
"Load.S71"              ,   1,        10.0,         5.0
"Load.S73"              ,   1,        10.0,         5.0
"Load.S74"              ,   1,        10.0,         5.0
"Load.S75"              ,   1,        10.0,         5.0
"Load.S76"              ,   1,        61.2,        45.0
"Load.S77"              ,   1,        10.0,         5.0
"Load.S79"              ,   1,        10.0,         5.0
"Load.S80"              ,   1,        10.0,         5.0
"Load.S82"              ,   1,        10.0,         5.0
"Load.S83"              ,   1,         5.0,         2.5
"Load.S84"              ,   1,         5.0,         2.5
"Load.S85"              ,   1,        10.0,         5.0
"Load.S86"              ,   1,         5.0,         2.5
"Load.S87"              ,   1,        10.0,         5.0
"Load.S88"              ,   1,        10.0,         5.0
"Load.S90"              ,   1,        10.0,         5.0
"Load.S92"              ,   1,        10.0,         5.0
"Load.S94"              ,   1,        10.0,         5.0
"Load.S95"              ,   1,         5.0,         2.5
"Load.S96"              ,   1,         5.0,         2.5
"Load.S98"              ,   1,        10.0,         5.0
"Load.S99"              ,   1,        10.0,         5.0
"Load.S100"             ,   1,        10.0,         5.0
"Load.S102"             ,   1,         5.0,         2.5
"Load.S103"             ,   1,        10.0,         5.0
"Load.S104"             ,   1,        10.0,         5.0
"Load.S106"             ,   1,        10.0,         5.0
"Load.S107"             ,   1,        10.0,         5.0
"Load.S109"             ,   1,        10.0,         5.0
"Load.S111"             ,   1,         5.0,         2.5
"Load.S112"             ,   1,         5.0,         2.5
"Load.S113"             ,   1,        10.0,         5.0
"Load.S114"             ,   1,         5.0,         2.5
"PVSystem.9"            ,   1,        -4.0,         0.0
"PVSystem.28"           ,   1,        -4.0,         0.0
"PVSystem.48"           ,   1,       -21.0,         0.0
"PVSystem.58"           ,   1,        -2.0,         0.0
"PVSystem.65"           ,   1,       -14.0,         0.0
"PVSystem.76"           ,   1,       -24.5,         0.0
"PVSystem.87"           ,   1,        -4.0,         0.0
"PVSystem.100"          ,   1,        -4.0,         0.0
